/*--------------------------------*- C++ -*----------------------------------*\
| =========                 |                                                 |
| \\      /  F ield         | foam-extend: Open Source CFD                    |
|  \\    /   O peration     | Version:     3.2                                |
|   \\  /    A nd           | Web:         http://www.foam-extend.org         |
|    \\/     M anipulation  | For copyright notice see file Copyright         |
\*---------------------------------------------------------------------------*/
FoamFile
{
    version     2.0;
    format      ascii;
    class       dictionary;
    location    "constant";
    object      solidProperties;
}
// * * * * * * * * * * * * * * * * * * * * * * * * * * * * * * * * * * * * * //

//solidModel unsLinearGeometry;
//solidModel    linearGeometryTotalDisplacement;
//solidModel    coupledUnsLinearGeometryLinearElastic;
//solidModel nonLinearGeometryUpdatedLagrangian;
//solidModel unsNonLinearGeometryUpdatedLagrangian;
//solidModel nonLinearGeometryTotalLagrangian;
//solidModel nonLinearGeometryTotalLagrangianTotalDisplacement;
solidModel unsNonLinearGeometryTotalLagrangian;

//linearGeometryCoeffs
//nonLinearGeometryTotalLagrangianCoeffs
//nonLinearGeometryTotalLagrangianTotalDisplacementCoeffs


coupledUnsLinearGeometryLinearElasticCoeffs
{}

"linearGeometryTotalDisplacementCoeffs|unsLinearGeometryCoeffs"
{
    // Maximum number of momentum correctors
     nCorrectors             1000;

    // Solution tolerance for displacement
     solutionTolerance       1e-6;

    // Relative solution tolerance for displacement in outer FSI iterations
    // Material law solution tolerance
     // materialTolerance       1e-05;

    // Write frequency for the residuals
     infoFrequency           1000;
}

nonLinearGeometryTotalLagrangianCoeffs
{}

nonLinearGeometryUpdatedLagrangianCoeffs
{}

unsNonLinearGeometryTotalLagrangianCoeffs
{
    // Maximum number of momentum correctors
     nCorrectors             1000;

    // Solution tolerance for displacement
     solutionTolerance       1e-6;

    // Relative solution tolerance for displacement in outer FSI iterations
    // Material law solution tolerance
     // materialTolerance       1e-05;

    // Write frequency for the residuals
     infoFrequency           1000;
}

// {

// }


// ************************************************************************* //
